-------------------------------------------------------
          Amber 18 PMEMD                              2018
          -------------------------------------------------------

  [-O]verwriting output

File Assignments:

 Here is the input file:

&cntrl
  imin      = 0,
  irest     = 1,
  ntx       = 5,
  ig        = -1,
  dt        = 0.002,
  nstlim    = 50000,
  nscm      = 500,
  ntr       = 1,
  restraintmask = ':1',
  restraint_wt  = 10.0,
  ntb       = 2,
  ntp       = 1,
  barostat  = 2,
  pres0     = 1.0,
  mcbarint  = 100,
  comp      = 44.6,
  taup      = 1.0,
  ntt       = 3,
  temp0     = 298.0,
  gamma_ln  = 1.0,
  ntf       = 2,
  ntc       = 2,
  cut       = 10.0,
  ntpr      = 500,
  ntxo      = 1,
  ntwr      = 50000,
  ioutfm    = 1,
  ntwx      = 500,
  iwrap     = 1,
&end

Note: ig = -1. Setting random seed to   308315 based on wallclock time in
      microseconds.

--------------------------------------------------------------------------------
   1.  RESOURCE   USE:
--------------------------------------------------------------------------------

 getting box info from netcdf restart file
 NATOM  =    3240 NTYPES =      13 NBONH =    3220 MBONA  =      21
 NTHETH =      33 MTHETA =      29 NPHIH =      60 MPHIA  =      45
 NHPARM =       0 NPARM  =       0 NNB   =    4456 NRES   =    1069
 NBONA  =      21 NTHETA =      29 NPHIA =      45 NUMBND =      22
 NUMANG =      35 NPTRA  =      18 NATYP =      17 NPHB   =       0
 IFBOX  =       2 NMXRS  =      36 IFCAP =       0 NEXTRA =       0
 NCOPY  =       0

     BOX TYPE: TRUNCATED OCTAHEDRON

--------------------------------------------------------------------------------
   2.  CONTROL  DATA  FOR  THE  RUN
--------------------------------------------------------------------------------

MON

General flags:
     imin    =       0, nmropt  =       0

Nature and format of input:
     ntx     =       5, irest   =       1, ntrx    =       1

Nature and format of output:
     ntxo    =       1, ntpr    =     500, ntrx    =       1, ntwr    =   50000
     iwrap   =       1, ntwx    =     500, ntwv    =       0, ntwe    =       0
     ioutfm  =       1, ntwprt  =       0, idecomp =       0, rbornstat=      0

Potential function:
     ntf     =       2, ntb     =       2, igb     =       0, nsnb    =      25
     ipol    =       0, gbsa    =       0, iesp    =       0
     dielc   =   1.00000, cut     =  10.00000, intdiel =   1.00000

Frozen or restrained atoms:
     ibelly  =       0, ntr     =       1
     restraint_wt =  10.00000

Molecular dynamics:
     nstlim  =     50000, nscm    =         0, nrespa  =         1
     t       =   0.00000, dt      =   0.00200, vlimit  =  20.00000

Langevin dynamics temperature regulation:
     ig      =  308315
     temp0   = 298.00000, tempi   =   0.00000, gamma_ln=   1.00000

Pressure regulation:
     ntp     =       1
     pres0   =   1.00000, comp    =  44.60000, taup    =   1.00000
     Monte-Carlo Barostat:
     mcbarint  =     100

SHAKE:
     ntc     =       2, jfastw  =       0
     tol     =   0.00001

Ewald parameters:
     verbose =       0, ew_type =       0, nbflag  =       1, use_pme =       1
     vdwmeth =       1, eedmeth =       1, netfrc  =       1
     Box X =   36.584   Box Y =   36.584   Box Z =   36.584
     Alpha =  109.471   Beta  =  109.471   Gamma =  109.471
     NFFT1 =   40       NFFT2 =   40       NFFT3 =   40
     Cutoff=   10.000   Tol   =0.100E-04
     Ewald Coefficient =  0.27511
     Interpolation order =    4

    LOADING THE CONSTRAINED ATOMS AS GROUPS

   5.  REFERENCE ATOM COORDINATES

  MON
     Mask :1; matches    36 atoms

--------------------------------------------------------------------------------
   3.  ATOMIC COORDINATES AND VELOCITIES
--------------------------------------------------------------------------------

MON
 begin time read from input coords =    20.000 ps

 Number of triangulated 3-point waters found:     1068

     Sum of charges from parm topology file =  -0.00200217
     Forcing neutrality...

--------------------------------------------------------------------------------
   4.  RESULTS
 NSTEP =      500   TIME(PS) =      21.000  TEMP(K) =   297.14  PRESS =     0.0
 Etot   =    -10451.4388  EKtot   =      1919.0445  EPtot      =    -12370.4833
 BOND   =         8.3413  ANGLE   =        13.4650  DIHED      =        11.4293
 1-4 NB =        10.7077  1-4 EEL =      -245.2600  VDWAALS    =      2377.3909
 EELEC  =    -14555.7564  EHBOND  =         0.0000  RESTRAINT  =         9.1990
 EAMBER (non-restraint)  =    -12379.6823
 EKCMT  =         0.0000  VIRIAL  =         0.0000  VOLUME     =     37221.2694
                                                    Density    =         0.8715
 Ewald error estimate:   0.1133E-03
 ------------------------------------------------------------------------------

      A V E R A G E S   O V E R     100 S T E P S

 NSTEP =    50000   TIME(PS) =     120.000  TEMP(K) =   298.85  PRESS =     0.0
 Etot   =    -10722.2737  EKtot   =      1930.0862  EPtot      =    -12652.3599
 BOND   =         7.0469  ANGLE   =        14.6567  DIHED      =        11.7861
 1-4 NB =        10.9095  1-4 EEL =      -245.3972  VDWAALS    =      2477.4877
 EELEC  =    -14938.4862  EHBOND  =         0.0000  RESTRAINT  =         9.6367
 EAMBER (non-restraint)  =    -12661.9966
 EKCMT  =         0.0000  VIRIAL  =         0.0000  VOLUME     =     32476.6982
                                                    Density    =         0.9998
 Ewald error estimate:   0.1753E-03
 ------------------------------------------------------------------------------

      R M S  F L U C T U A T I O N S

 NSTEP =    50000   TIME(PS) =     120.000  TEMP(K) =     5.29  PRESS =     0.0
 Etot   =        97.8373  EKtot   =        34.1569  EPtot      =        88.0164
 BOND   =         1.9530  ANGLE   =         2.3728  DIHED      =         1.5973
 1-4 NB =         0.9424  1-4 EEL =         1.6156  VDWAALS    =        67.0062
 EELEC  =       134.0914  EHBOND  =         0.0000  RESTRAINT  =         2.2533
 EAMBER (non-restraint)  =        85.7631
 EKCMT  =         0.0000  VIRIAL  =         0.0000  VOLUME     =      1090.3420
                                                    Density    =         0.0307
 Ewald error estimate:   0.1395E-03
 ------------------------------------------------------------------------------
