-------------------------------------------------------
          Amber 18 PMEMD                              2018
          -------------------------------------------------------

  [-O]verwriting output

File Assignments:

 Here is the input file:

&cntrl
  imin      = 0,
  irest     = 1,
  ntx       = 5,
  ig        = -1,
  dt        = 0.002,
  nstlim    = 50000,
  nscm      = 500,
  ntr       = 1,
  restraintmask = ':1',
  restraint_wt  = 10.0,
  ntb       = 2,
  ntp       = 1,
  barostat  = 2,
  pres0     = 1.0,
  mcbarint  = 100,
  comp      = 44.6,
  taup      = 1.0,
  ntt       = 3,
  temp0     = 298.0,
  gamma_ln  = 1.0,
  ntf       = 2,
  ntc       = 2,
  cut       = 10.0,
  ntpr      = 500,
  ntxo      = 1,
  ntwr      = 50000,
  ioutfm    = 1,
  ntwx      = 500,
  iwrap     = 1,
&end

Note: ig = -1. Setting random seed to    44647 based on wallclock time in
      microseconds and disabling the synchronization of random numbers
      between tasks to improve performance.

--------------------------------------------------------------------------------
   1.  RESOURCE   USE:
--------------------------------------------------------------------------------

 getting box info from netcdf restart file
 NATOM  =    3240 NTYPES =      14 NBONH =    3220 MBONA  =      21
 NTHETH =      33 MTHETA =      29 NPHIH =      58 MPHIA  =      46
 NHPARM =       0 NPARM  =       0 NNB   =    4456 NRES   =    1069
 NBONA  =      21 NTHETA =      29 NPHIA =      46 NUMBND =      22
 NUMANG =      35 NPTRA  =      22 NATYP =      17 NPHB   =       1
 IFBOX  =       2 NMXRS  =      36 IFCAP =       0 NEXTRA =       0
 NCOPY  =       0

     BOX TYPE: TRUNCATED OCTAHEDRON

--------------------------------------------------------------------------------
   2.  CONTROL  DATA  FOR  THE  RUN
--------------------------------------------------------------------------------

MON

General flags:
     imin    =       0, nmropt  =       0

Nature and format of input:
     ntx     =       5, irest   =       1, ntrx    =       1

Nature and format of output:
     ntxo    =       1, ntpr    =     500, ntrx    =       1, ntwr    =   50000
     iwrap   =       1, ntwx    =     500, ntwv    =       0, ntwe    =       0
     ioutfm  =       1, ntwprt  =       0, idecomp =       0, rbornstat=      0

Potential function:
     ntf     =       2, ntb     =       2, igb     =       0, nsnb    =      25
     ipol    =       0, gbsa    =       0, iesp    =       0
     dielc   =   1.00000, cut     =  10.00000, intdiel =   1.00000

Frozen or restrained atoms:
     ibelly  =       0, ntr     =       1
     restraint_wt =  10.00000

Molecular dynamics:
     nstlim  =     50000, nscm    =         0, nrespa  =         1
     t       =   0.00000, dt      =   0.00200, vlimit  =  20.00000

Langevin dynamics temperature regulation:
     ig      =   44647
     temp0   = 298.00000, tempi   =   0.00000, gamma_ln=   1.00000

Pressure regulation:
     ntp     =       1
     pres0   =   1.00000, comp    =  44.60000, taup    =   1.00000
     Monte-Carlo Barostat:
     mcbarint  =     100

SHAKE:
     ntc     =       2, jfastw  =       0
     tol     =   0.00001

Ewald parameters:
     verbose =       0, ew_type =       0, nbflag  =       1, use_pme =       1
     vdwmeth =       1, eedmeth =       1, netfrc  =       1
     Box X =   36.043   Box Y =   36.043   Box Z =   36.043
     Alpha =  109.471   Beta  =  109.471   Gamma =  109.471
     NFFT1 =   40       NFFT2 =   40       NFFT3 =   40
     Cutoff=   10.000   Tol   =0.100E-04
     Ewald Coefficient =  0.27511
     Interpolation order =    4

    LOADING THE CONSTRAINED ATOMS AS GROUPS

   5.  REFERENCE ATOM COORDINATES

  MON
     Mask :1; matches    36 atoms

--------------------------------------------------------------------------------
   3.  ATOMIC COORDINATES AND VELOCITIES
--------------------------------------------------------------------------------

MON
 begin time read from input coords =    20.000 ps

 Number of triangulated 3-point waters found:     1068

     Sum of charges from parm topology file =  -0.00200217
     Forcing neutrality...

--------------------------------------------------------------------------------
   4.  RESULTS
 NSTEP =      500   TIME(PS) =      21.000  TEMP(K) =   299.10  PRESS =     0.0
 Etot   =    -10480.6890  EKtot   =      1931.7033  EPtot      =    -12412.3923
 BOND   =         5.7377  ANGLE   =        12.5893  DIHED      =        14.7887
 1-4 NB =        10.6564  1-4 EEL =      -244.4020  VDWAALS    =      2440.7164
 EELEC  =    -14660.5763  EHBOND  =         0.0000  RESTRAINT  =         8.0975
 EAMBER (non-restraint)  =    -12420.4897
 EKCMT  =         0.0000  VIRIAL  =         0.0000  VOLUME     =     35602.1371
                                                    Density    =         0.9111
 Ewald error estimate:   0.2284E-03
 ------------------------------------------------------------------------------

      A V E R A G E S   O V E R     100 S T E P S

 NSTEP =    50000   TIME(PS) =     120.000  TEMP(K) =   299.15  PRESS =     0.0
 Etot   =    -10693.1011  EKtot   =      1932.0521  EPtot      =    -12625.1532
 BOND   =         6.8093  ANGLE   =        15.7440  DIHED      =        15.9252
 1-4 NB =        12.0862  1-4 EEL =      -245.7272  VDWAALS    =      2469.2567
 EELEC  =    -14908.6526  EHBOND  =         0.0000  RESTRAINT  =         9.4051
 EAMBER (non-restraint)  =    -12634.5583
 EKCMT  =         0.0000  VIRIAL  =         0.0000  VOLUME     =     32232.6511
                                                    Density    =         1.0066
 Ewald error estimate:   0.1916E-03
 ------------------------------------------------------------------------------

      R M S  F L U C T U A T I O N S

 NSTEP =    50000   TIME(PS) =     120.000  TEMP(K) =     4.65  PRESS =     0.0
 Etot   =        58.4451  EKtot   =        30.0577  EPtot      =        56.5915
 BOND   =         2.1467  ANGLE   =         2.2313  DIHED      =         1.5731
 1-4 NB =         1.0278  1-4 EEL =         1.4770  VDWAALS    =        60.0163
 EELEC  =        91.7451  EHBOND  =         0.0000  RESTRAINT  =         1.9491
 EAMBER (non-restraint)  =        54.6424
 EKCMT  =         0.0000  VIRIAL  =         0.0000  VOLUME     =       581.7512
                                                    Density    =         0.0172
 Ewald error estimate:   0.1333E-03
 ------------------------------------------------------------------------------
