-------------------------------------------------------
          Amber 18 PMEMD                              2018
          -------------------------------------------------------

  [-O]verwriting output

File Assignments:

 Here is the input file:

&cntrl
  imin      = 0,
  irest     = 1,
  ntx       = 5,
  ig        = -1,
  dt        = 0.002,
  nstlim    = 50000,
  nscm      = 500,
  ntr       = 1,
  restraintmask = ':1',
  restraint_wt  = 10.0,
  ntb       = 2,
  ntp       = 1,
  barostat  = 2,
  pres0     = 1.0,
  mcbarint  = 100,
  comp      = 44.6,
  taup      = 1.0,
  ntt       = 3,
  temp0     = 298.0,
  gamma_ln  = 1.0,
  ntf       = 2,
  ntc       = 2,
  cut       = 10.0,
  ntpr      = 500,
  ntxo      = 1,
  ntwr      = 50000,
  ioutfm    = 1,
  ntwx      = 500,
  iwrap     = 1,
&end

Note: ig = -1. Setting random seed to   722036 based on wallclock time in
      microseconds.

--------------------------------------------------------------------------------
   1.  RESOURCE   USE:
--------------------------------------------------------------------------------

 getting box info from netcdf restart file
 NATOM  =    3240 NTYPES =      13 NBONH =    3220 MBONA  =      21
 NTHETH =      33 MTHETA =      29 NPHIH =      60 MPHIA  =      45
 NHPARM =       0 NPARM  =       0 NNB   =    4456 NRES   =    1069
 NBONA  =      21 NTHETA =      29 NPHIA =      45 NUMBND =      22
 NUMANG =      35 NPTRA  =      18 NATYP =      17 NPHB   =       0
 IFBOX  =       2 NMXRS  =      36 IFCAP =       0 NEXTRA =       0
 NCOPY  =       0

     BOX TYPE: TRUNCATED OCTAHEDRON

--------------------------------------------------------------------------------
   2.  CONTROL  DATA  FOR  THE  RUN
--------------------------------------------------------------------------------

MON

General flags:
     imin    =       0, nmropt  =       0

Nature and format of input:
     ntx     =       5, irest   =       1, ntrx    =       1

Nature and format of output:
     ntxo    =       1, ntpr    =     500, ntrx    =       1, ntwr    =   50000
     iwrap   =       1, ntwx    =     500, ntwv    =       0, ntwe    =       0
     ioutfm  =       1, ntwprt  =       0, idecomp =       0, rbornstat=      0

Potential function:
     ntf     =       2, ntb     =       2, igb     =       0, nsnb    =      25
     ipol    =       0, gbsa    =       0, iesp    =       0
     dielc   =   1.00000, cut     =  10.00000, intdiel =   1.00000

Frozen or restrained atoms:
     ibelly  =       0, ntr     =       1
     restraint_wt =  10.00000

Molecular dynamics:
     nstlim  =     50000, nscm    =         0, nrespa  =         1
     t       =   0.00000, dt      =   0.00200, vlimit  =  20.00000

Langevin dynamics temperature regulation:
     ig      =  722036
     temp0   = 298.00000, tempi   =   0.00000, gamma_ln=   1.00000

Pressure regulation:
     ntp     =       1
     pres0   =   1.00000, comp    =  44.60000, taup    =   1.00000
     Monte-Carlo Barostat:
     mcbarint  =     100

SHAKE:
     ntc     =       2, jfastw  =       0
     tol     =   0.00001

Ewald parameters:
     verbose =       0, ew_type =       0, nbflag  =       1, use_pme =       1
     vdwmeth =       1, eedmeth =       1, netfrc  =       1
     Box X =   36.297   Box Y =   36.297   Box Z =   36.297
     Alpha =  109.471   Beta  =  109.471   Gamma =  109.471
     NFFT1 =   40       NFFT2 =   40       NFFT3 =   40
     Cutoff=   10.000   Tol   =0.100E-04
     Ewald Coefficient =  0.27511
     Interpolation order =    4

    LOADING THE CONSTRAINED ATOMS AS GROUPS

   5.  REFERENCE ATOM COORDINATES

  MON
     Mask :1; matches    36 atoms

--------------------------------------------------------------------------------
   3.  ATOMIC COORDINATES AND VELOCITIES
--------------------------------------------------------------------------------

MON
 begin time read from input coords =    20.000 ps

 Number of triangulated 3-point waters found:     1068

     Sum of charges from parm topology file =  -0.00200217
     Forcing neutrality...

--------------------------------------------------------------------------------
   4.  RESULTS
 NSTEP =      500   TIME(PS) =      21.000  TEMP(K) =   295.50  PRESS =     0.0
 Etot   =    -10524.8832  EKtot   =      1908.4556  EPtot      =    -12433.3388
 BOND   =         6.5241  ANGLE   =        14.7645  DIHED      =        12.1981
 1-4 NB =        10.6964  1-4 EEL =      -246.7854  VDWAALS    =      2468.8617
 EELEC  =    -14707.1001  EHBOND  =         0.0000  RESTRAINT  =         7.5019
 EAMBER (non-restraint)  =    -12440.8407
 EKCMT  =         0.0000  VIRIAL  =         0.0000  VOLUME     =     35996.9542
                                                    Density    =         0.9011
 Ewald error estimate:   0.5785E-03
 ------------------------------------------------------------------------------

      A V E R A G E S   O V E R     100 S T E P S

 NSTEP =    50000   TIME(PS) =     120.000  TEMP(K) =   297.14  PRESS =     0.0
 Etot   =    -10725.2659  EKtot   =      1919.0338  EPtot      =    -12644.2997
 BOND   =         6.3303  ANGLE   =        13.5453  DIHED      =        12.0297
 1-4 NB =        11.0772  1-4 EEL =      -247.4458  VDWAALS    =      2482.3204
 EELEC  =    -14931.6330  EHBOND  =         0.0000  RESTRAINT  =         9.4762
 EAMBER (non-restraint)  =    -12653.7759
 EKCMT  =         0.0000  VIRIAL  =         0.0000  VOLUME     =     32505.0409
                                                    Density    =         0.9984
 Ewald error estimate:   0.1744E-03
 ------------------------------------------------------------------------------

      R M S  F L U C T U A T I O N S

 NSTEP =    50000   TIME(PS) =     120.000  TEMP(K) =     5.67  PRESS =     0.0
 Etot   =        73.7485  EKtot   =        36.6325  EPtot      =        64.1871
 BOND   =         2.1112  ANGLE   =         2.2070  DIHED      =         1.5429
 1-4 NB =         0.9336  1-4 EEL =         1.3188  VDWAALS    =        68.5641
 EELEC  =       110.6283  EHBOND  =         0.0000  RESTRAINT  =         1.8403
 EAMBER (non-restraint)  =        62.3467
 EKCMT  =         0.0000  VIRIAL  =         0.0000  VOLUME     =       786.6556
                                                    Density    =         0.0226
 Ewald error estimate:   0.1330E-03
 ------------------------------------------------------------------------------
