-------------------------------------------------------
          Amber 18 PMEMD                              2018
          -------------------------------------------------------

  [-O]verwriting output

File Assignments:

 Here is the input file:

&cntrl
  imin      = 0,
  irest     = 1,
  ntx       = 5,
  ig        = -1,
  dt        = 0.002,
  nstlim    = 50000,
  nscm      = 500,
  ntr       = 1,
  restraintmask = ':1',
  restraint_wt  = 10.0,
  ntb       = 2,
  ntp       = 1,
  barostat  = 2,
  pres0     = 1.0,
  mcbarint  = 100,
  comp      = 44.6,
  taup      = 1.0,
  ntt       = 3,
  temp0     = 298.0,
  gamma_ln  = 1.0,
  ntf       = 2,
  ntc       = 2,
  cut       = 10.0,
  ntpr      = 500,
  ntxo      = 1,
  ntwr      = 50000,
  ioutfm    = 1,
  ntwx      = 500,
  iwrap     = 1,
&end

Note: ig = -1. Setting random seed to   882013 based on wallclock time in
      microseconds and disabling the synchronization of random numbers
      between tasks to improve performance.

--------------------------------------------------------------------------------
   1.  RESOURCE   USE:
--------------------------------------------------------------------------------

 getting box info from netcdf restart file
 NATOM  =    3240 NTYPES =      14 NBONH =    3220 MBONA  =      21
 NTHETH =      33 MTHETA =      29 NPHIH =      58 MPHIA  =      46
 NHPARM =       0 NPARM  =       0 NNB   =    4456 NRES   =    1069
 NBONA  =      21 NTHETA =      29 NPHIA =      46 NUMBND =      22
 NUMANG =      35 NPTRA  =      22 NATYP =      17 NPHB   =       1
 IFBOX  =       2 NMXRS  =      36 IFCAP =       0 NEXTRA =       0
 NCOPY  =       0

     BOX TYPE: TRUNCATED OCTAHEDRON

--------------------------------------------------------------------------------
   2.  CONTROL  DATA  FOR  THE  RUN
--------------------------------------------------------------------------------

MON

General flags:
     imin    =       0, nmropt  =       0

Nature and format of input:
     ntx     =       5, irest   =       1, ntrx    =       1

Nature and format of output:
     ntxo    =       1, ntpr    =     500, ntrx    =       1, ntwr    =   50000
     iwrap   =       1, ntwx    =     500, ntwv    =       0, ntwe    =       0
     ioutfm  =       1, ntwprt  =       0, idecomp =       0, rbornstat=      0

Potential function:
     ntf     =       2, ntb     =       2, igb     =       0, nsnb    =      25
     ipol    =       0, gbsa    =       0, iesp    =       0
     dielc   =   1.00000, cut     =  10.00000, intdiel =   1.00000

Frozen or restrained atoms:
     ibelly  =       0, ntr     =       1
     restraint_wt =  10.00000

Molecular dynamics:
     nstlim  =     50000, nscm    =         0, nrespa  =         1
     t       =   0.00000, dt      =   0.00200, vlimit  =  20.00000

Langevin dynamics temperature regulation:
     ig      =  882013
     temp0   = 298.00000, tempi   =   0.00000, gamma_ln=   1.00000

Pressure regulation:
     ntp     =       1
     pres0   =   1.00000, comp    =  44.60000, taup    =   1.00000
     Monte-Carlo Barostat:
     mcbarint  =     100

SHAKE:
     ntc     =       2, jfastw  =       0
     tol     =   0.00001

Ewald parameters:
     verbose =       0, ew_type =       0, nbflag  =       1, use_pme =       1
     vdwmeth =       1, eedmeth =       1, netfrc  =       1
     Box X =   36.116   Box Y =   36.116   Box Z =   36.116
     Alpha =  109.471   Beta  =  109.471   Gamma =  109.471
     NFFT1 =   40       NFFT2 =   40       NFFT3 =   40
     Cutoff=   10.000   Tol   =0.100E-04
     Ewald Coefficient =  0.27511
     Interpolation order =    4

    LOADING THE CONSTRAINED ATOMS AS GROUPS

   5.  REFERENCE ATOM COORDINATES

  MON
     Mask :1; matches    36 atoms

--------------------------------------------------------------------------------
   3.  ATOMIC COORDINATES AND VELOCITIES
--------------------------------------------------------------------------------

MON
 begin time read from input coords =    20.000 ps

 Number of triangulated 3-point waters found:     1068

     Sum of charges from parm topology file =  -0.00200217
     Forcing neutrality...

--------------------------------------------------------------------------------
   4.  RESULTS
 NSTEP =      500   TIME(PS) =      21.000  TEMP(K) =   303.64  PRESS =     0.0
 Etot   =    -10418.1365  EKtot   =      1961.0086  EPtot      =    -12379.1451
 BOND   =        11.3503  ANGLE   =        16.5383  DIHED      =        14.3794
 1-4 NB =        12.2326  1-4 EEL =      -247.2330  VDWAALS    =      2420.9877
 EELEC  =    -14619.6088  EHBOND  =         0.0000  RESTRAINT  =        12.2082
 EAMBER (non-restraint)  =    -12391.3534
 EKCMT  =         0.0000  VIRIAL  =         0.0000  VOLUME     =     35738.6012
                                                    Density    =         0.9076
 Ewald error estimate:   0.5879E-04
 ------------------------------------------------------------------------------

      A V E R A G E S   O V E R     100 S T E P S

 NSTEP =    50000   TIME(PS) =     120.000  TEMP(K) =   297.70  PRESS =     0.0
 Etot   =    -10715.4833  EKtot   =      1922.6323  EPtot      =    -12638.1156
 BOND   =         8.1069  ANGLE   =        16.7649  DIHED      =        13.6177
 1-4 NB =        11.5182  1-4 EEL =      -246.7160  VDWAALS    =      2485.5899
 EELEC  =    -14936.1062  EHBOND  =         0.0000  RESTRAINT  =         9.1091
 EAMBER (non-restraint)  =    -12647.2246
 EKCMT  =         0.0000  VIRIAL  =         0.0000  VOLUME     =     32322.3583
                                                    Density    =         1.0039
 Ewald error estimate:   0.1687E-03
 ------------------------------------------------------------------------------

      R M S  F L U C T U A T I O N S

 NSTEP =    50000   TIME(PS) =     120.000  TEMP(K) =     5.41  PRESS =     0.0
 Etot   =        90.2254  EKtot   =        34.9311  EPtot      =        77.4697
 BOND   =         2.4199  ANGLE   =         2.7719  DIHED      =         1.5478
 1-4 NB =         0.9795  1-4 EEL =         1.4321  VDWAALS    =        62.2531
 EELEC  =       119.0782  EHBOND  =         0.0000  RESTRAINT  =         1.9712
 EAMBER (non-restraint)  =        75.4985
 EKCMT  =         0.0000  VIRIAL  =         0.0000  VOLUME     =       659.7082
                                                    Density    =         0.0192
 Ewald error estimate:   0.1385E-03
 ------------------------------------------------------------------------------
