-------------------------------------------------------
          Amber 18 PMEMD                              2018
          -------------------------------------------------------

  [-O]verwriting output

File Assignments:

 Here is the input file:

&cntrl
  imin      = 0,
  irest     = 1,
  ntx       = 5,
  ig        = -1,
  dt        = 0.002,
  nstlim    = 50000,
  nscm      = 500,
  ntr       = 1,
  restraintmask = ':1',
  restraint_wt  = 10.0,
  ntb       = 2,
  ntp       = 1,
  barostat  = 2,
  pres0     = 1.0,
  mcbarint  = 100,
  comp      = 44.6,
  taup      = 1.0,
  ntt       = 3,
  temp0     = 298.0,
  gamma_ln  = 1.0,
  ntf       = 2,
  ntc       = 2,
  cut       = 10.0,
  ntpr      = 500,
  ntxo      = 1,
  ntwr      = 50000,
  ioutfm    = 1,
  ntwx      = 500,
  iwrap     = 1,
&end

Note: ig = -1. Setting random seed to   866822 based on wallclock time in
      microseconds.

--------------------------------------------------------------------------------
   1.  RESOURCE   USE:
--------------------------------------------------------------------------------

 getting box info from netcdf restart file
 NATOM  =    3240 NTYPES =      13 NBONH =    3220 MBONA  =      21
 NTHETH =      33 MTHETA =      29 NPHIH =      60 MPHIA  =      45
 NHPARM =       0 NPARM  =       0 NNB   =    4456 NRES   =    1069
 NBONA  =      21 NTHETA =      29 NPHIA =      45 NUMBND =      22
 NUMANG =      35 NPTRA  =      18 NATYP =      17 NPHB   =       0
 IFBOX  =       2 NMXRS  =      36 IFCAP =       0 NEXTRA =       0
 NCOPY  =       0

     BOX TYPE: TRUNCATED OCTAHEDRON

--------------------------------------------------------------------------------
   2.  CONTROL  DATA  FOR  THE  RUN
--------------------------------------------------------------------------------

MON

General flags:
     imin    =       0, nmropt  =       0

Nature and format of input:
     ntx     =       5, irest   =       1, ntrx    =       1

Nature and format of output:
     ntxo    =       1, ntpr    =     500, ntrx    =       1, ntwr    =   50000
     iwrap   =       1, ntwx    =     500, ntwv    =       0, ntwe    =       0
     ioutfm  =       1, ntwprt  =       0, idecomp =       0, rbornstat=      0

Potential function:
     ntf     =       2, ntb     =       2, igb     =       0, nsnb    =      25
     ipol    =       0, gbsa    =       0, iesp    =       0
     dielc   =   1.00000, cut     =  10.00000, intdiel =   1.00000

Frozen or restrained atoms:
     ibelly  =       0, ntr     =       1
     restraint_wt =  10.00000

Molecular dynamics:
     nstlim  =     50000, nscm    =         0, nrespa  =         1
     t       =   0.00000, dt      =   0.00200, vlimit  =  20.00000

Langevin dynamics temperature regulation:
     ig      =  866822
     temp0   = 298.00000, tempi   =   0.00000, gamma_ln=   1.00000

Pressure regulation:
     ntp     =       1
     pres0   =   1.00000, comp    =  44.60000, taup    =   1.00000
     Monte-Carlo Barostat:
     mcbarint  =     100

SHAKE:
     ntc     =       2, jfastw  =       0
     tol     =   0.00001

Ewald parameters:
     verbose =       0, ew_type =       0, nbflag  =       1, use_pme =       1
     vdwmeth =       1, eedmeth =       1, netfrc  =       1
     Box X =   36.230   Box Y =   36.230   Box Z =   36.230
     Alpha =  109.471   Beta  =  109.471   Gamma =  109.471
     NFFT1 =   40       NFFT2 =   40       NFFT3 =   40
     Cutoff=   10.000   Tol   =0.100E-04
     Ewald Coefficient =  0.27511
     Interpolation order =    4

    LOADING THE CONSTRAINED ATOMS AS GROUPS

   5.  REFERENCE ATOM COORDINATES

  MON
     Mask :1; matches    36 atoms

--------------------------------------------------------------------------------
   3.  ATOMIC COORDINATES AND VELOCITIES
--------------------------------------------------------------------------------

MON
 begin time read from input coords =    20.000 ps

 Number of triangulated 3-point waters found:     1068

     Sum of charges from parm topology file =  -0.00200217
     Forcing neutrality...

--------------------------------------------------------------------------------
   4.  RESULTS
 NSTEP =      500   TIME(PS) =      21.000  TEMP(K) =   297.79  PRESS =     0.0
 Etot   =    -10537.0413  EKtot   =      1923.2353  EPtot      =    -12460.2766
 BOND   =         4.0457  ANGLE   =        16.9764  DIHED      =        13.7284
 1-4 NB =        11.7034  1-4 EEL =      -250.3101  VDWAALS    =      2309.1030
 EELEC  =    -14576.8239  EHBOND  =         0.0000  RESTRAINT  =        11.3005
 EAMBER (non-restraint)  =    -12471.5771
 EKCMT  =         0.0000  VIRIAL  =         0.0000  VOLUME     =     35933.3703
                                                    Density    =         0.9027
 Ewald error estimate:   0.2655E-03
 ------------------------------------------------------------------------------

      A V E R A G E S   O V E R     100 S T E P S

 NSTEP =    50000   TIME(PS) =     120.000  TEMP(K) =   298.51  PRESS =     0.0
 Etot   =    -10718.5431  EKtot   =      1927.8594  EPtot      =    -12646.4026
 BOND   =         6.7747  ANGLE   =        13.0684  DIHED      =        13.5368
 1-4 NB =        11.4469  1-4 EEL =      -246.8582  VDWAALS    =      2466.9514
 EELEC  =    -14921.1192  EHBOND  =         0.0000  RESTRAINT  =         9.7965
 EAMBER (non-restraint)  =    -12656.1991
 EKCMT  =         0.0000  VIRIAL  =         0.0000  VOLUME     =     32439.7588
                                                    Density    =         1.0006
 Ewald error estimate:   0.1780E-03
 ------------------------------------------------------------------------------

      R M S  F L U C T U A T I O N S

 NSTEP =    50000   TIME(PS) =     120.000  TEMP(K) =     4.55  PRESS =     0.0
 Etot   =        88.0467  EKtot   =        29.3846  EPtot      =        79.1408
 BOND   =         2.1087  ANGLE   =         2.3666  DIHED      =         1.6099
 1-4 NB =         1.0770  1-4 EEL =         1.8506  VDWAALS    =        70.6540
 EELEC  =       121.8564  EHBOND  =         0.0000  RESTRAINT  =         1.9463
 EAMBER (non-restraint)  =        77.1946
 EKCMT  =         0.0000  VIRIAL  =         0.0000  VOLUME     =       868.3262
                                                    Density    =         0.0251
 Ewald error estimate:   0.1275E-03
 ------------------------------------------------------------------------------
