-------------------------------------------------------
          Amber 18 PMEMD                              2018
          -------------------------------------------------------

  [-O]verwriting output

File Assignments:

 Here is the input file:

&cntrl
  imin      = 0,
  irest     = 0,
  ntx       = 1,
  ig        = -1,
  dt        = 0.002,
  nstlim    = 10000,
  nscm      = 500,
  ntr       = 1,
  restraintmask = ':1',
  restraint_wt  = 10.0,
  ntb       = 1,
  ntp       = 0,
  ntt       = 3,
  tempi     = 298.0,
  temp0     = 298.0,
  gamma_ln  = 1.0,
  ntf       = 2,
  ntc       = 2,
  cut       = 10.0,
  ntpr      = 500,
  ntxo      = 2,
  ntwr      = 10000,
  ioutfm    = 1,
  ntwx      = 500,
  iwrap     = 1,
&end

Note: ig = -1. Setting random seed to   836633 based on wallclock time in
      microseconds and disabling the synchronization of random numbers
      between tasks to improve performance.

--------------------------------------------------------------------------------
   1.  RESOURCE   USE:
--------------------------------------------------------------------------------

 getting box info from netcdf restart file
 NATOM  =    3240 NTYPES =      14 NBONH =    3220 MBONA  =      21
 NTHETH =      33 MTHETA =      29 NPHIH =      58 MPHIA  =      46
 NHPARM =       0 NPARM  =       0 NNB   =    4456 NRES   =    1069
 NBONA  =      21 NTHETA =      29 NPHIA =      46 NUMBND =      22
 NUMANG =      35 NPTRA  =      22 NATYP =      17 NPHB   =       1
 IFBOX  =       2 NMXRS  =      36 IFCAP =       0 NEXTRA =       0
 NCOPY  =       0

     BOX TYPE: TRUNCATED OCTAHEDRON

--------------------------------------------------------------------------------
   2.  CONTROL  DATA  FOR  THE  RUN
--------------------------------------------------------------------------------

MON

General flags:
     imin    =       0, nmropt  =       0

Nature and format of input:
     ntx     =       1, irest   =       0, ntrx    =       1

Nature and format of output:
     ntxo    =       2, ntpr    =     500, ntrx    =       1, ntwr    =   10000
     iwrap   =       1, ntwx    =     500, ntwv    =       0, ntwe    =       0
     ioutfm  =       1, ntwprt  =       0, idecomp =       0, rbornstat=      0

Potential function:
     ntf     =       2, ntb     =       1, igb     =       0, nsnb    =      25
     ipol    =       0, gbsa    =       0, iesp    =       0
     dielc   =   1.00000, cut     =  10.00000, intdiel =   1.00000

Frozen or restrained atoms:
     ibelly  =       0, ntr     =       1
     restraint_wt =  10.00000

Molecular dynamics:
     nstlim  =     10000, nscm    =         0, nrespa  =         1
     t       =   0.00000, dt      =   0.00200, vlimit  =  20.00000

Langevin dynamics temperature regulation:
     ig      =  836633
     temp0   = 298.00000, tempi   = 298.00000, gamma_ln=   1.00000

SHAKE:
     ntc     =       2, jfastw  =       0
     tol     =   0.00001

Ewald parameters:
     verbose =       0, ew_type =       0, nbflag  =       1, use_pme =       1
     vdwmeth =       1, eedmeth =       1, netfrc  =       1
     Box X =   36.058   Box Y =   36.058   Box Z =   36.058
     Alpha =  109.471   Beta  =  109.471   Gamma =  109.471
     NFFT1 =   40       NFFT2 =   40       NFFT3 =   40
     Cutoff=   10.000   Tol   =0.100E-04
     Ewald Coefficient =  0.27511
     Interpolation order =    4

    LOADING THE CONSTRAINED ATOMS AS GROUPS

   5.  REFERENCE ATOM COORDINATES

  MON
     Mask :1; matches    36 atoms

--------------------------------------------------------------------------------
   3.  ATOMIC COORDINATES AND VELOCITIES
--------------------------------------------------------------------------------

MON
 begin time read from input coords =     0.000 ps

 Number of triangulated 3-point waters found:     1068

     Sum of charges from parm topology file =  -0.00200217
     Forcing neutrality...

--------------------------------------------------------------------------------
   4.  RESULTS
 NSTEP =        0   TIME(PS) =       0.000  TEMP(K) =   432.19  PRESS =     0.0
 Etot   =    -14700.9972  EKtot   =      2791.2357  EPtot      =    -17492.2329
 BOND   =         0.8164  ANGLE   =         6.4896  DIHED      =        12.3774
 1-4 NB =        11.8949  1-4 EEL =      -245.0884  VDWAALS    =      3653.0375
 EELEC  =    -20931.7604  EHBOND  =         0.0000  RESTRAINT  =         0.0000
 Ewald error estimate:   0.1987E-03
 ------------------------------------------------------------------------------

      A V E R A G E S   O V E R      20 S T E P S

 NSTEP =    10000   TIME(PS) =      20.000  TEMP(K) =   293.45  PRESS =     0.0
 Etot   =    -10562.0205  EKtot   =      1895.2070  EPtot      =    -12457.2276
 BOND   =         6.5952  ANGLE   =        15.3907  DIHED      =        15.7415
 1-4 NB =        12.1222  1-4 EEL =      -245.6348  VDWAALS    =      2343.5093
 EELEC  =    -14612.2230  EHBOND  =         0.0000  RESTRAINT  =         7.2714
 EAMBER (non-restraint)  =    -12464.4990
 Ewald error estimate:   0.2024E-03
 ------------------------------------------------------------------------------

      R M S  F L U C T U A T I O N S

 NSTEP =    10000   TIME(PS) =      20.000  TEMP(K) =    13.11  PRESS =     0.0
 Etot   =       205.6957  EKtot   =        84.6596  EPtot      =       126.6281
 BOND   =         1.5114  ANGLE   =         2.0960  DIHED      =         1.3105
 1-4 NB =         0.7387  1-4 EEL =         1.3167  VDWAALS    =        67.5855
 EELEC  =       173.0647  EHBOND  =         0.0000  RESTRAINT  =         1.8801
 EAMBER (non-restraint)  =       124.7480
 Ewald error estimate:   0.1460E-03
 ------------------------------------------------------------------------------
