-------------------------------------------------------
          Amber 18 PMEMD                              2018
          -------------------------------------------------------

  [-O]verwriting output

File Assignments:

 Here is the input file:

&cntrl
  imin      = 0,
  irest     = 1,
  ntx       = 5,
  ig        = -1,
  dt        = 0.002,
  nstlim    = 50000,
  nscm      = 500,
  ntr       = 1,
  restraintmask = ':1',
  restraint_wt  = 10.0,
  ntb       = 2,
  ntp       = 1,
  barostat  = 2,
  pres0     = 1.0,
  mcbarint  = 100,
  comp      = 44.6,
  taup      = 1.0,
  ntt       = 3,
  temp0     = 298.0,
  gamma_ln  = 1.0,
  ntf       = 2,
  ntc       = 2,
  cut       = 10.0,
  ntpr      = 500,
  ntxo      = 1,
  ntwr      = 50000,
  ioutfm    = 1,
  ntwx      = 500,
  iwrap     = 1,
&end

Note: ig = -1. Setting random seed to   304192 based on wallclock time in
      microseconds and disabling the synchronization of random numbers
      between tasks to improve performance.

--------------------------------------------------------------------------------
   1.  RESOURCE   USE:
--------------------------------------------------------------------------------

 getting box info from netcdf restart file
 NATOM  =    3240 NTYPES =      13 NBONH =    3220 MBONA  =      21
 NTHETH =      33 MTHETA =      29 NPHIH =      60 MPHIA  =      45
 NHPARM =       0 NPARM  =       0 NNB   =    4456 NRES   =    1069
 NBONA  =      21 NTHETA =      29 NPHIA =      45 NUMBND =      22
 NUMANG =      35 NPTRA  =      18 NATYP =      17 NPHB   =       0
 IFBOX  =       2 NMXRS  =      36 IFCAP =       0 NEXTRA =       0
 NCOPY  =       0

     BOX TYPE: TRUNCATED OCTAHEDRON

--------------------------------------------------------------------------------
   2.  CONTROL  DATA  FOR  THE  RUN
--------------------------------------------------------------------------------

default_name

General flags:
     imin    =       0, nmropt  =       0

Nature and format of input:
     ntx     =       5, irest   =       1, ntrx    =       1

Nature and format of output:
     ntxo    =       1, ntpr    =     500, ntrx    =       1, ntwr    =   50000
     iwrap   =       1, ntwx    =     500, ntwv    =       0, ntwe    =       0
     ioutfm  =       1, ntwprt  =       0, idecomp =       0, rbornstat=      0

Potential function:
     ntf     =       2, ntb     =       2, igb     =       0, nsnb    =      25
     ipol    =       0, gbsa    =       0, iesp    =       0
     dielc   =   1.00000, cut     =  10.00000, intdiel =   1.00000

Frozen or restrained atoms:
     ibelly  =       0, ntr     =       1
     restraint_wt =  10.00000

Molecular dynamics:
     nstlim  =     50000, nscm    =         0, nrespa  =         1
     t       =   0.00000, dt      =   0.00200, vlimit  =  20.00000

Langevin dynamics temperature regulation:
     ig      =  304192
     temp0   = 298.00000, tempi   =   0.00000, gamma_ln=   1.00000

Pressure regulation:
     ntp     =       1
     pres0   =   1.00000, comp    =  44.60000, taup    =   1.00000
     Monte-Carlo Barostat:
     mcbarint  =     100

SHAKE:
     ntc     =       2, jfastw  =       0
     tol     =   0.00001

Ewald parameters:
     verbose =       0, ew_type =       0, nbflag  =       1, use_pme =       1
     vdwmeth =       1, eedmeth =       1, netfrc  =       1
     Box X =   36.275   Box Y =   36.275   Box Z =   36.275
     Alpha =  109.471   Beta  =  109.471   Gamma =  109.471
     NFFT1 =   40       NFFT2 =   40       NFFT3 =   40
     Cutoff=   10.000   Tol   =0.100E-04
     Ewald Coefficient =  0.27511
     Interpolation order =    4

    LOADING THE CONSTRAINED ATOMS AS GROUPS

   5.  REFERENCE ATOM COORDINATES

  default_name
     Mask :1; matches    36 atoms

--------------------------------------------------------------------------------
   3.  ATOMIC COORDINATES AND VELOCITIES
--------------------------------------------------------------------------------

default_name
 begin time read from input coords =    20.000 ps

 Number of triangulated 3-point waters found:     1068

     Sum of charges from parm topology file =  -0.00030117
     Forcing neutrality...

--------------------------------------------------------------------------------
   4.  RESULTS
 NSTEP =      500   TIME(PS) =      21.000  TEMP(K) =   290.81  PRESS =     0.0
 Etot   =    -10743.7428  EKtot   =      1878.1573  EPtot      =    -12621.9001
 BOND   =         4.1865  ANGLE   =        20.2670  DIHED      =        12.0940
 1-4 NB =        12.1530  1-4 EEL =      -604.8902  VDWAALS    =      2358.0553
 EELEC  =    -14431.5585  EHBOND  =         0.0000  RESTRAINT  =         7.7928
 EAMBER (non-restraint)  =    -12629.6929
 EKCMT  =         0.0000  VIRIAL  =         0.0000  VOLUME     =     36039.5510
                                                    Density    =         0.9000
 Ewald error estimate:   0.1429E-03
 ------------------------------------------------------------------------------

      A V E R A G E S   O V E R     100 S T E P S

 NSTEP =    50000   TIME(PS) =     120.000  TEMP(K) =   298.19  PRESS =     0.0
 Etot   =    -10927.0070  EKtot   =      1925.7905  EPtot      =    -12852.7976
 BOND   =         7.2686  ANGLE   =        15.1546  DIHED      =        11.8258
 1-4 NB =        11.8705  1-4 EEL =      -601.6260  VDWAALS    =      2470.0199
 EELEC  =    -14776.1195  EHBOND  =         0.0000  RESTRAINT  =         8.8085
 EAMBER (non-restraint)  =    -12861.6061
 EKCMT  =         0.0000  VIRIAL  =         0.0000  VOLUME     =     32327.5499
                                                    Density    =         1.0040
 Ewald error estimate:   0.1703E-03
 ------------------------------------------------------------------------------

      R M S  F L U C T U A T I O N S

 NSTEP =    50000   TIME(PS) =     120.000  TEMP(K) =     4.82  PRESS =     0.0
 Etot   =        77.8580  EKtot   =        31.1064  EPtot      =        72.2509
 BOND   =         2.2218  ANGLE   =         2.9523  DIHED      =         1.6625
 1-4 NB =         1.0875  1-4 EEL =         3.8678  VDWAALS    =        60.9231
 EELEC  =       111.6821  EHBOND  =         0.0000  RESTRAINT  =         1.7385
 EAMBER (non-restraint)  =        70.5125
 EKCMT  =         0.0000  VIRIAL  =         0.0000  VOLUME     =       817.1527
                                                    Density    =         0.0235
 Ewald error estimate:   0.1220E-03
 ------------------------------------------------------------------------------
