-------------------------------------------------------
          Amber 18 PMEMD                              2018
          -------------------------------------------------------

  [-O]verwriting output

File Assignments:

 Here is the input file:

&cntrl
  imin      = 0,
  irest     = 1,
  ntx       = 5,
  ig        = -1,
  dt        = 0.002,
  nstlim    = 50000,
  nscm      = 500,
  ntr       = 1,
  restraintmask = ':1',
  restraint_wt  = 10.0,
  ntb       = 2,
  ntp       = 1,
  barostat  = 2,
  pres0     = 1.0,
  mcbarint  = 100,
  comp      = 44.6,
  taup      = 1.0,
  ntt       = 3,
  temp0     = 298.0,
  gamma_ln  = 1.0,
  ntf       = 2,
  ntc       = 2,
  cut       = 10.0,
  ntpr      = 500,
  ntxo      = 1,
  ntwr      = 50000,
  ioutfm    = 1,
  ntwx      = 500,
  iwrap     = 1,
&end

Note: ig = -1. Setting random seed to    24616 based on wallclock time in
      microseconds and disabling the synchronization of random numbers
      between tasks to improve performance.

--------------------------------------------------------------------------------
   1.  RESOURCE   USE:
--------------------------------------------------------------------------------

 getting box info from netcdf restart file
 NATOM  =    3240 NTYPES =      13 NBONH =    3220 MBONA  =      21
 NTHETH =      33 MTHETA =      29 NPHIH =      60 MPHIA  =      45
 NHPARM =       0 NPARM  =       0 NNB   =    4456 NRES   =    1069
 NBONA  =      21 NTHETA =      29 NPHIA =      45 NUMBND =      22
 NUMANG =      35 NPTRA  =      18 NATYP =      17 NPHB   =       0
 IFBOX  =       2 NMXRS  =      36 IFCAP =       0 NEXTRA =       0
 NCOPY  =       0

     BOX TYPE: TRUNCATED OCTAHEDRON

--------------------------------------------------------------------------------
   2.  CONTROL  DATA  FOR  THE  RUN
--------------------------------------------------------------------------------

default_name

General flags:
     imin    =       0, nmropt  =       0

Nature and format of input:
     ntx     =       5, irest   =       1, ntrx    =       1

Nature and format of output:
     ntxo    =       1, ntpr    =     500, ntrx    =       1, ntwr    =   50000
     iwrap   =       1, ntwx    =     500, ntwv    =       0, ntwe    =       0
     ioutfm  =       1, ntwprt  =       0, idecomp =       0, rbornstat=      0

Potential function:
     ntf     =       2, ntb     =       2, igb     =       0, nsnb    =      25
     ipol    =       0, gbsa    =       0, iesp    =       0
     dielc   =   1.00000, cut     =  10.00000, intdiel =   1.00000

Frozen or restrained atoms:
     ibelly  =       0, ntr     =       1
     restraint_wt =  10.00000

Molecular dynamics:
     nstlim  =     50000, nscm    =         0, nrespa  =         1
     t       =   0.00000, dt      =   0.00200, vlimit  =  20.00000

Langevin dynamics temperature regulation:
     ig      =   24616
     temp0   = 298.00000, tempi   =   0.00000, gamma_ln=   1.00000

Pressure regulation:
     ntp     =       1
     pres0   =   1.00000, comp    =  44.60000, taup    =   1.00000
     Monte-Carlo Barostat:
     mcbarint  =     100

SHAKE:
     ntc     =       2, jfastw  =       0
     tol     =   0.00001

Ewald parameters:
     verbose =       0, ew_type =       0, nbflag  =       1, use_pme =       1
     vdwmeth =       1, eedmeth =       1, netfrc  =       1
     Box X =   36.172   Box Y =   36.172   Box Z =   36.172
     Alpha =  109.471   Beta  =  109.471   Gamma =  109.471
     NFFT1 =   40       NFFT2 =   40       NFFT3 =   40
     Cutoff=   10.000   Tol   =0.100E-04
     Ewald Coefficient =  0.27511
     Interpolation order =    4

    LOADING THE CONSTRAINED ATOMS AS GROUPS

   5.  REFERENCE ATOM COORDINATES

  default_name
     Mask :1; matches    36 atoms

--------------------------------------------------------------------------------
   3.  ATOMIC COORDINATES AND VELOCITIES
--------------------------------------------------------------------------------

default_name
 begin time read from input coords =    20.000 ps

 Number of triangulated 3-point waters found:     1068

     Sum of charges from parm topology file =  -0.00030117
     Forcing neutrality...

--------------------------------------------------------------------------------
   4.  RESULTS
 NSTEP =      500   TIME(PS) =      21.000  TEMP(K) =   295.77  PRESS =     0.0
 Etot   =    -10767.3375  EKtot   =      1910.1959  EPtot      =    -12677.5334
 BOND   =         7.0456  ANGLE   =        11.8700  DIHED      =        13.4256
 1-4 NB =        13.4197  1-4 EEL =      -602.4711  VDWAALS    =      2323.0444
 EELEC  =    -14450.7487  EHBOND  =         0.0000  RESTRAINT  =         6.8811
 EAMBER (non-restraint)  =    -12684.4145
 EKCMT  =         0.0000  VIRIAL  =         0.0000  VOLUME     =     35934.0651
                                                    Density    =         0.9027
 Ewald error estimate:   0.3312E-04
 ------------------------------------------------------------------------------

      A V E R A G E S   O V E R     100 S T E P S

 NSTEP =    50000   TIME(PS) =     120.000  TEMP(K) =   297.21  PRESS =     0.0
 Etot   =    -10927.7874  EKtot   =      1919.4921  EPtot      =    -12847.2795
 BOND   =         7.3326  ANGLE   =        14.6236  DIHED      =        13.4636
 1-4 NB =        12.1734  1-4 EEL =      -600.8043  VDWAALS    =      2463.7171
 EELEC  =    -14767.1118  EHBOND  =         0.0000  RESTRAINT  =         9.3263
 EAMBER (non-restraint)  =    -12856.6058
 EKCMT  =         0.0000  VIRIAL  =         0.0000  VOLUME     =     32272.3478
                                                    Density    =         1.0055
 Ewald error estimate:   0.1676E-03
 ------------------------------------------------------------------------------

      R M S  F L U C T U A T I O N S

 NSTEP =    50000   TIME(PS) =     120.000  TEMP(K) =     7.19  PRESS =     0.0
 Etot   =        79.0434  EKtot   =        46.4394  EPtot      =        59.1692
 BOND   =         2.0130  ANGLE   =         2.4671  DIHED      =         1.5676
 1-4 NB =         1.0710  1-4 EEL =         4.1012  VDWAALS    =        70.7056
 EELEC  =       110.7340  EHBOND  =         0.0000  RESTRAINT  =         2.1759
 EAMBER (non-restraint)  =        56.9932
 EKCMT  =         0.0000  VIRIAL  =         0.0000  VOLUME     =       669.5263
                                                    Density    =         0.0194
 Ewald error estimate:   0.1356E-03
 ------------------------------------------------------------------------------
