-------------------------------------------------------
          Amber 18 PMEMD                              2018
          -------------------------------------------------------

  [-O]verwriting output

File Assignments:

 Here is the input file:

&cntrl
  imin      = 0,
  irest     = 1,
  ntx       = 5,
  ig        = -1,
  dt        = 0.002,
  nstlim    = 50000,
  nscm      = 500,
  ntr       = 1,
  restraintmask = ':1',
  restraint_wt  = 10.0,
  ntb       = 2,
  ntp       = 1,
  barostat  = 2,
  pres0     = 1.0,
  mcbarint  = 100,
  comp      = 44.6,
  taup      = 1.0,
  ntt       = 3,
  temp0     = 298.0,
  gamma_ln  = 1.0,
  ntf       = 2,
  ntc       = 2,
  cut       = 10.0,
  ntpr      = 500,
  ntxo      = 1,
  ntwr      = 50000,
  ioutfm    = 1,
  ntwx      = 500,
  iwrap     = 1,
&end

Note: ig = -1. Setting random seed to   366784 based on wallclock time in
      microseconds and disabling the synchronization of random numbers
      between tasks to improve performance.

--------------------------------------------------------------------------------
   1.  RESOURCE   USE:
--------------------------------------------------------------------------------

 getting box info from netcdf restart file
 NATOM  =    3240 NTYPES =      13 NBONH =    3220 MBONA  =      21
 NTHETH =      33 MTHETA =      29 NPHIH =      60 MPHIA  =      45
 NHPARM =       0 NPARM  =       0 NNB   =    4456 NRES   =    1069
 NBONA  =      21 NTHETA =      29 NPHIA =      45 NUMBND =      22
 NUMANG =      35 NPTRA  =      18 NATYP =      17 NPHB   =       0
 IFBOX  =       2 NMXRS  =      36 IFCAP =       0 NEXTRA =       0
 NCOPY  =       0

     BOX TYPE: TRUNCATED OCTAHEDRON

--------------------------------------------------------------------------------
   2.  CONTROL  DATA  FOR  THE  RUN
--------------------------------------------------------------------------------

default_name

General flags:
     imin    =       0, nmropt  =       0

Nature and format of input:
     ntx     =       5, irest   =       1, ntrx    =       1

Nature and format of output:
     ntxo    =       1, ntpr    =     500, ntrx    =       1, ntwr    =   50000
     iwrap   =       1, ntwx    =     500, ntwv    =       0, ntwe    =       0
     ioutfm  =       1, ntwprt  =       0, idecomp =       0, rbornstat=      0

Potential function:
     ntf     =       2, ntb     =       2, igb     =       0, nsnb    =      25
     ipol    =       0, gbsa    =       0, iesp    =       0
     dielc   =   1.00000, cut     =  10.00000, intdiel =   1.00000

Frozen or restrained atoms:
     ibelly  =       0, ntr     =       1
     restraint_wt =  10.00000

Molecular dynamics:
     nstlim  =     50000, nscm    =         0, nrespa  =         1
     t       =   0.00000, dt      =   0.00200, vlimit  =  20.00000

Langevin dynamics temperature regulation:
     ig      =  366784
     temp0   = 298.00000, tempi   =   0.00000, gamma_ln=   1.00000

Pressure regulation:
     ntp     =       1
     pres0   =   1.00000, comp    =  44.60000, taup    =   1.00000
     Monte-Carlo Barostat:
     mcbarint  =     100

SHAKE:
     ntc     =       2, jfastw  =       0
     tol     =   0.00001

Ewald parameters:
     verbose =       0, ew_type =       0, nbflag  =       1, use_pme =       1
     vdwmeth =       1, eedmeth =       1, netfrc  =       1
     Box X =   36.318   Box Y =   36.318   Box Z =   36.318
     Alpha =  109.471   Beta  =  109.471   Gamma =  109.471
     NFFT1 =   40       NFFT2 =   40       NFFT3 =   40
     Cutoff=   10.000   Tol   =0.100E-04
     Ewald Coefficient =  0.27511
     Interpolation order =    4

    LOADING THE CONSTRAINED ATOMS AS GROUPS

   5.  REFERENCE ATOM COORDINATES

  default_name
     Mask :1; matches    36 atoms

--------------------------------------------------------------------------------
   3.  ATOMIC COORDINATES AND VELOCITIES
--------------------------------------------------------------------------------

default_name
 begin time read from input coords =    20.000 ps

 Number of triangulated 3-point waters found:     1068

     Sum of charges from parm topology file =  -0.00010118
     Forcing neutrality...

--------------------------------------------------------------------------------
   4.  RESULTS
 NSTEP =      500   TIME(PS) =      21.000  TEMP(K) =   299.93  PRESS =     0.0
 Etot   =    -10800.0372  EKtot   =      1937.0324  EPtot      =    -12737.0696
 BOND   =         7.1528  ANGLE   =        10.7118  DIHED      =        11.7363
 1-4 NB =        11.5013  1-4 EEL =      -663.1849  VDWAALS    =      2420.9287
 EELEC  =    -14542.8110  EHBOND  =         0.0000  RESTRAINT  =         6.8954
 EAMBER (non-restraint)  =    -12743.9650
 EKCMT  =         0.0000  VIRIAL  =         0.0000  VOLUME     =     35603.6705
                                                    Density    =         0.9110
 Ewald error estimate:   0.2561E-03
 ------------------------------------------------------------------------------

      A V E R A G E S   O V E R     100 S T E P S

 NSTEP =    50000   TIME(PS) =     120.000  TEMP(K) =   297.51  PRESS =     0.0
 Etot   =    -11014.0815  EKtot   =      1921.4356  EPtot      =    -12935.5171
 BOND   =         7.9069  ANGLE   =        13.8203  DIHED      =        15.6829
 1-4 NB =        12.1025  1-4 EEL =      -669.6934  VDWAALS    =      2490.1129
 EELEC  =    -14814.5345  EHBOND  =         0.0000  RESTRAINT  =         9.0853
 EAMBER (non-restraint)  =    -12944.6025
 EKCMT  =         0.0000  VIRIAL  =         0.0000  VOLUME     =     32284.3779
                                                    Density    =         1.0051
 Ewald error estimate:   0.1717E-03
 ------------------------------------------------------------------------------

      R M S  F L U C T U A T I O N S

 NSTEP =    50000   TIME(PS) =     120.000  TEMP(K) =     5.06  PRESS =     0.0
 Etot   =        70.3244  EKtot   =        32.6495  EPtot      =        70.5360
 BOND   =         1.9694  ANGLE   =         2.3598  DIHED      =         2.0454
 1-4 NB =         0.9937  1-4 EEL =         4.6306  VDWAALS    =        66.2898
 EELEC  =       119.3925  EHBOND  =         0.0000  RESTRAINT  =         2.0129
 EAMBER (non-restraint)  =        68.5231
 EKCMT  =         0.0000  VIRIAL  =         0.0000  VOLUME     =       693.3321
                                                    Density    =         0.0202
 Ewald error estimate:   0.1500E-03
 ------------------------------------------------------------------------------
