-------------------------------------------------------
          Amber 18 PMEMD                              2018
          -------------------------------------------------------

  [-O]verwriting output

File Assignments:

 Here is the input file:

&cntrl
  imin      = 0,
  irest     = 1,
  ntx       = 5,
  ig        = -1,
  dt        = 0.002,
  nstlim    = 50000,
  nscm      = 500,
  ntr       = 1,
  restraintmask = ':1',
  restraint_wt  = 10.0,
  ntb       = 2,
  ntp       = 1,
  barostat  = 2,
  pres0     = 1.0,
  mcbarint  = 100,
  comp      = 44.6,
  taup      = 1.0,
  ntt       = 3,
  temp0     = 298.0,
  gamma_ln  = 1.0,
  ntf       = 2,
  ntc       = 2,
  cut       = 10.0,
  ntpr      = 500,
  ntxo      = 1,
  ntwr      = 50000,
  ioutfm    = 1,
  ntwx      = 500,
  iwrap     = 1,
&end

Note: ig = -1. Setting random seed to   903122 based on wallclock time in
      microseconds.

--------------------------------------------------------------------------------
   1.  RESOURCE   USE:
--------------------------------------------------------------------------------

 getting box info from netcdf restart file
 NATOM  =    3240 NTYPES =      13 NBONH =    3220 MBONA  =      21
 NTHETH =      33 MTHETA =      29 NPHIH =      60 MPHIA  =      45
 NHPARM =       0 NPARM  =       0 NNB   =    4456 NRES   =    1069
 NBONA  =      21 NTHETA =      29 NPHIA =      45 NUMBND =      22
 NUMANG =      35 NPTRA  =      18 NATYP =      17 NPHB   =       0
 IFBOX  =       2 NMXRS  =      36 IFCAP =       0 NEXTRA =       0
 NCOPY  =       0

     BOX TYPE: TRUNCATED OCTAHEDRON

--------------------------------------------------------------------------------
   2.  CONTROL  DATA  FOR  THE  RUN
--------------------------------------------------------------------------------

MON

General flags:
     imin    =       0, nmropt  =       0

Nature and format of input:
     ntx     =       5, irest   =       1, ntrx    =       1

Nature and format of output:
     ntxo    =       1, ntpr    =     500, ntrx    =       1, ntwr    =   50000
     iwrap   =       1, ntwx    =     500, ntwv    =       0, ntwe    =       0
     ioutfm  =       1, ntwprt  =       0, idecomp =       0, rbornstat=      0

Potential function:
     ntf     =       2, ntb     =       2, igb     =       0, nsnb    =      25
     ipol    =       0, gbsa    =       0, iesp    =       0
     dielc   =   1.00000, cut     =  10.00000, intdiel =   1.00000

Frozen or restrained atoms:
     ibelly  =       0, ntr     =       1
     restraint_wt =  10.00000

Molecular dynamics:
     nstlim  =     50000, nscm    =         0, nrespa  =         1
     t       =   0.00000, dt      =   0.00200, vlimit  =  20.00000

Langevin dynamics temperature regulation:
     ig      =  903122
     temp0   = 298.00000, tempi   =   0.00000, gamma_ln=   1.00000

Pressure regulation:
     ntp     =       1
     pres0   =   1.00000, comp    =  44.60000, taup    =   1.00000
     Monte-Carlo Barostat:
     mcbarint  =     100

SHAKE:
     ntc     =       2, jfastw  =       0
     tol     =   0.00001

Ewald parameters:
     verbose =       0, ew_type =       0, nbflag  =       1, use_pme =       1
     vdwmeth =       1, eedmeth =       1, netfrc  =       1
     Box X =   35.917   Box Y =   35.917   Box Z =   35.917
     Alpha =  109.471   Beta  =  109.471   Gamma =  109.471
     NFFT1 =   36       NFFT2 =   36       NFFT3 =   36
     Cutoff=   10.000   Tol   =0.100E-04
     Ewald Coefficient =  0.27511
     Interpolation order =    4

    LOADING THE CONSTRAINED ATOMS AS GROUPS

   5.  REFERENCE ATOM COORDINATES

  MON
     Mask :1; matches    36 atoms

--------------------------------------------------------------------------------
   3.  ATOMIC COORDINATES AND VELOCITIES
--------------------------------------------------------------------------------

MON
 begin time read from input coords =    20.000 ps

 Number of triangulated 3-point waters found:     1068

     Sum of charges from parm topology file =  -0.00200217
     Forcing neutrality...

--------------------------------------------------------------------------------
   4.  RESULTS
 NSTEP =      500   TIME(PS) =      21.000  TEMP(K) =   295.26  PRESS =     0.0
 Etot   =    -10553.4423  EKtot   =      1906.8727  EPtot      =    -12460.3150
 BOND   =         7.1300  ANGLE   =        15.1207  DIHED      =         9.8866
 1-4 NB =        13.4912  1-4 EEL =      -246.7463  VDWAALS    =      2317.8187
 EELEC  =    -14585.7923  EHBOND  =         0.0000  RESTRAINT  =         8.7763
 EAMBER (non-restraint)  =    -12469.0913
 EKCMT  =         0.0000  VIRIAL  =         0.0000  VOLUME     =     35449.9634
                                                    Density    =         0.9150
 Ewald error estimate:   0.4640E-04
 ------------------------------------------------------------------------------

      A V E R A G E S   O V E R     100 S T E P S

 NSTEP =    50000   TIME(PS) =     120.000  TEMP(K) =   298.56  PRESS =     0.0
 Etot   =    -10728.2431  EKtot   =      1928.2425  EPtot      =    -12656.4855
 BOND   =         6.6665  ANGLE   =        12.7595  DIHED      =        12.7317
 1-4 NB =        11.2423  1-4 EEL =      -246.0932  VDWAALS    =      2474.6808
 EELEC  =    -14937.0235  EHBOND  =         0.0000  RESTRAINT  =         8.5505
 EAMBER (non-restraint)  =    -12665.0360
 EKCMT  =         0.0000  VIRIAL  =         0.0000  VOLUME     =     32226.4832
                                                    Density    =         1.0069
 Ewald error estimate:   0.1669E-03
 ------------------------------------------------------------------------------

      R M S  F L U C T U A T I O N S

 NSTEP =    50000   TIME(PS) =     120.000  TEMP(K) =     4.86  PRESS =     0.0
 Etot   =        62.9919  EKtot   =        31.3975  EPtot      =        59.7256
 BOND   =         1.9528  ANGLE   =         2.1739  DIHED      =         1.6935
 1-4 NB =         1.0395  1-4 EEL =         1.5338  VDWAALS    =        59.0828
 EELEC  =        99.8302  EHBOND  =         0.0000  RESTRAINT  =         1.8339
 EAMBER (non-restraint)  =        57.8917
 EKCMT  =         0.0000  VIRIAL  =         0.0000  VOLUME     =       607.4909
                                                    Density    =         0.0179
 Ewald error estimate:   0.1245E-03
 ------------------------------------------------------------------------------
